examples/13NodeIEEE/OpenDSS files/IEEE13Nodeckt_VLN.Txt

SYMMETRICAL COMPONENT VOLTAGES BY BUS (for 3-phase buses)

Bus   Mag:   V1 (kV)    p.u.     V2 (kV)   %V2/V1    V0 (kV)    %V0/V1

650      2.521       1.05  5.861E-005   0.002324 4.612E-005  0.001829
633      2.413      1.005    0.02884      1.195   0.04914     2.037
634     0.2784      1.005   0.003328      1.195   0.00567     2.037
671      2.349      0.978     0.0568      2.418     0.115     4.895
645      2.469      1.028          0          0         0         0
646      2.465      1.026          0          0         0         0
692      2.348     0.9777    0.05719      2.436    0.1163     4.951
675       2.34     0.9743    0.06033      2.578    0.1217     5.201
611       2.22     0.9244          0          0         0         0
652      2.289     0.9529          0          0         0         0
670      2.394     0.9967    0.03845      1.606   0.06983     2.917
632      2.419      1.007    0.02879       1.19   0.04791     1.981
680      2.349      0.978     0.0568      2.418     0.115     4.895
684      2.302     0.9583          0          0         0         0
